9
	Energy:     114.6755820
C         -0.06717       -1.24230        0.01209
O          0.97776       -0.63639       -0.11168
O          0.41095       -2.46110        0.08269
P          2.05673       -2.02200       -0.06858
H          2.42317       -1.81285        1.22688
C         -1.46767       -0.73247        0.06645
H         -1.47248        0.37463       -0.01163
H         -1.99716       -1.00047        0.94473
H         -2.05149       -1.16284       -0.77342
