15
	Energy:       1.1781358
O          0.28883        0.73860       -0.74207
Si        -0.01097        0.35447       -2.25763
C          1.40902        0.91428       -3.33164
C         -1.57386        1.20414       -2.82264
H          0.73630        0.54187       -0.03382
H          1.52521        2.01392       -3.23930
H          1.20074        0.65266       -4.38922
H          2.34318        0.41551       -3.00172
H         -0.21072       -1.09886       -2.35724
H         -1.43346        2.30374       -2.77918
H         -2.41617        0.91101       -2.16317
H         -1.79868        0.90200       -3.86622
O         -1.24746        0.77557       -5.82713
H         -0.27746        0.77557       -5.82713
H         -1.57079        0.10011       -6.44366
